<nodes>
   <node id="0" x="50.0" y="50.0" type="priority"/>
   <node id="1" x="450.0" y="50.0" type="priority"/>
   <node id="2" x="450.0" y="450.0" type="priority"/>
   <node id="3" x="50.0" y="450.0" type="priority"/>
   <node id="4" x="450.0" y="100.0" type="priority"/>
   <node id="5" x="450.0" y="400.0" type="priority"/>
   <node id="6" x="475.0" y="100.0" type="priority"/>
   <node id="7" x="475.0" y="400.0" type="priority"/>
   <node id="corner1" x="500.0" y="0.0" type="priority"/>
   <node id="corner2" x="0.0" y="500.0" type="priority"/>
</nodes>
